Version 4
SHEET 1 880 680
WIRE -624 -64 -624 -80
WIRE -480 -64 -480 -80
WIRE -624 48 -624 16
WIRE -560 48 -624 48
WIRE -480 48 -480 16
WIRE -480 48 -560 48
WIRE 368 48 -176 48
WIRE 240 128 240 112
WIRE -176 144 -176 48
WIRE -144 144 -176 144
WIRE -32 144 -144 144
WIRE 80 144 48 144
WIRE 208 144 80 144
WIRE 368 160 368 48
WIRE 368 160 272 160
WIRE 416 160 368 160
WIRE 448 160 416 160
WIRE 208 176 144 176
WIRE 80 208 80 144
WIRE 240 224 240 192
WIRE 80 256 80 208
WIRE 144 256 144 176
WIRE 176 256 144 256
WIRE 368 256 368 160
WIRE 368 256 256 256
WIRE 144 304 144 256
FLAG 144 384 0
FLAG 80 320 0
FLAG -560 48 0
FLAG -624 -80 V+
IOPIN -624 -80 Out
FLAG -480 -80 V-
IOPIN -480 -80 Out
FLAG 240 112 V+
IOPIN 240 112 In
FLAG 240 224 V-
IOPIN 240 224 In
FLAG 416 160 out
FLAG -144 144 1
FLAG 80 208 2
SYMBOL OpAmps\\LT1356 240 96 R0
SYMATTR InstName U1
SYMBOL res 128 288 R0
SYMATTR InstName R1
SYMATTR Value 1k
SYMBOL res 272 240 R90
WINDOW 0 0 56 VBottom 2
WINDOW 3 32 56 VTop 2
SYMATTR InstName R2
SYMATTR Value 3.3k
SYMBOL res 64 128 R90
WINDOW 0 0 56 VBottom 2
WINDOW 3 32 56 VTop 2
SYMATTR InstName R3
SYMATTR Value 10k
SYMBOL cap 64 256 R0
SYMATTR InstName C1
SYMATTR Value 100n
SYMBOL voltage -624 -80 R0
WINDOW 123 0 0 Left 0
WINDOW 39 0 0 Left 0
SYMATTR InstName V2
SYMATTR Value 15
SYMBOL voltage -480 32 R180
WINDOW 0 24 96 Left 2
WINDOW 3 24 16 Left 2
WINDOW 123 0 0 Left 0
WINDOW 39 0 0 Left 0
SYMATTR InstName V3
SYMATTR Value 15
TEXT -168 408 Left 2 !.tran 0.06
