Version 4
SHEET 1 880 680
WIRE -64 -96 -128 -96
WIRE 160 -96 16 -96
WIRE 368 -96 160 -96
WIRE -656 -64 -656 -80
WIRE -464 -64 -464 -80
WIRE 240 16 240 0
WIRE 160 32 160 -96
WIRE 208 32 160 32
WIRE -656 48 -656 16
WIRE -560 48 -656 48
WIRE -464 48 -464 16
WIRE -464 48 -560 48
WIRE -128 48 -128 -96
WIRE 368 48 368 -16
WIRE 368 48 272 48
WIRE 208 64 160 64
WIRE 240 96 240 80
WIRE 368 96 368 48
WIRE 160 208 160 64
WIRE 368 208 368 176
WIRE 368 208 160 208
WIRE 368 240 368 208
WIRE -128 352 -128 112
WIRE 368 352 -128 352
FLAG -656 -80 V+
IOPIN -656 -80 Out
FLAG -464 -80 V-
IOPIN -464 -80 Out
FLAG -560 48 0
FLAG 368 352 0
FLAG 240 0 V+
IOPIN 240 0 In
FLAG 240 96 V-
IOPIN 240 96 In
SYMBOL pot 352 256 R0
SYMATTR InstName X1
SYMBOL res 352 -112 R0
SYMATTR InstName R1
SYMATTR Value 1k
SYMBOL res 352 80 R0
SYMATTR InstName R2
SYMATTR Value 100k
SYMBOL OpAmps\\LT1356 240 -16 R0
SYMATTR InstName U1
SYMBOL cap -144 48 R0
SYMATTR InstName C1
SYMATTR Value 1µ
SYMBOL ind -80 -80 R270
WINDOW 0 32 56 VTop 2
WINDOW 3 5 56 VBottom 2
SYMATTR InstName L1
SYMATTR Value 1000p
SYMBOL voltage -656 -80 R0
WINDOW 123 0 0 Left 0
WINDOW 39 0 0 Left 0
SYMATTR InstName V1
SYMATTR Value 15
SYMBOL voltage -464 32 R180
WINDOW 0 24 96 Left 2
WINDOW 3 24 16 Left 2
WINDOW 123 0 0 Left 0
WINDOW 39 0 0 Left 0
SYMATTR InstName V2
SYMATTR Value 15
TEXT -728 376 Left 2 !.tran 0.03
